<nodes>
    <node id="n_in" x="0" y="100" type="priority"/>
    <node id="s_in" x="0" y="-100" type="priority"/>
    <node id="e_in" x="100" y="0" type="priority"/>
    <node id="w_in" x="-100" y="0" type="priority"/>
    <node id="center" x="0" y="0" type="traffic_light"/>
    <node id="n_out" x="0" y="200" type="priority"/>
    <node id="s_out" x="0" y="-200" type="priority"/>
    <node id="e_out" x="200" y="0" type="priority"/>
    <node id="w_out" x="-200" y="0" type="priority"/>
</nodes>
