<?xml version="1.0" encoding="UTF-8"?>

<!-- generated on 2025-09-25 13:40:09 by Eclipse SUMO netconvert Version 1.24.0
<netconvertConfiguration xmlns:xsi="http://www.w3.org/2001/XMLSchema-instance" xsi:noNamespaceSchemaLocation="http://sumo.dlr.de/xsd/netconvertConfiguration.xsd">

    <input>
        <node-files value="simple_intersection.nod.xml"/>
        <edge-files value="simple_intersection.edg.xml"/>
    </input>

    <output>
        <output-file value="simple_intersection.net.xml"/>
    </output>

</netconvertConfiguration>
-->

<net version="1.20" junctionCornerDetail="5" limitTurnSpeed="5.50" xmlns:xsi="http://www.w3.org/2001/XMLSchema-instance" xsi:noNamespaceSchemaLocation="http://sumo.dlr.de/xsd/net_file.xsd">

    <location netOffset="200.00,200.00" convBoundary="0.00,0.00,400.00,400.00" origBoundary="-200.00,-200.00,200.00,200.00" projParameter="!"/>

    <edge id=":center_0" function="internal">
        <lane id=":center_0_0" index="0" speed="6.51" length="9.03" shape="192.00,213.60 191.65,211.15 190.60,209.40 188.85,208.35 186.40,208.00"/>
    </edge>
    <edge id=":center_1" function="internal">
        <lane id=":center_1_0" index="0" speed="13.90" length="27.20" shape="192.00,213.60 192.00,186.40"/>
        <lane id=":center_1_1" index="1" speed="13.90" length="27.20" shape="195.20,213.60 195.20,186.40"/>
        <lane id=":center_1_2" index="2" speed="13.90" length="27.20" shape="198.40,213.60 198.40,186.40"/>
    </edge>
    <edge id=":center_4" function="internal">
        <lane id=":center_4_0" index="0" speed="10.36" length="5.01" shape="198.40,213.60 199.11,208.64"/>
    </edge>
    <edge id=":center_5" function="internal">
        <lane id=":center_5_0" index="0" speed="3.65" length="1.44" shape="198.40,213.60 199.20,212.40"/>
    </edge>
    <edge id=":center_24" function="internal">
        <lane id=":center_24_0" index="0" speed="10.36" length="19.50" shape="199.11,208.64 199.35,206.95 202.20,202.20 206.95,199.35 213.60,198.40"/>
    </edge>
    <edge id=":center_25" function="internal">
        <lane id=":center_25_0" index="0" speed="3.65" length="3.23" shape="199.20,212.40 200.00,212.00 200.80,212.40 201.60,213.60"/>
    </edge>
    <edge id=":center_6" function="internal">
        <lane id=":center_6_0" index="0" speed="6.51" length="9.03" shape="213.60,208.00 211.15,208.35 209.40,209.40 208.35,211.15 208.00,213.60"/>
    </edge>
    <edge id=":center_7" function="internal">
        <lane id=":center_7_0" index="0" speed="13.90" length="27.20" shape="213.60,208.00 186.40,208.00"/>
        <lane id=":center_7_1" index="1" speed="13.90" length="27.20" shape="213.60,204.80 186.40,204.80"/>
        <lane id=":center_7_2" index="2" speed="13.90" length="27.20" shape="213.60,201.60 186.40,201.60"/>
    </edge>
    <edge id=":center_10" function="internal">
        <lane id=":center_10_0" index="0" speed="10.36" length="5.01" shape="213.60,201.60 208.64,200.89"/>
    </edge>
    <edge id=":center_11" function="internal">
        <lane id=":center_11_0" index="0" speed="3.65" length="1.44" shape="213.60,201.60 212.40,200.80"/>
    </edge>
    <edge id=":center_26" function="internal">
        <lane id=":center_26_0" index="0" speed="10.36" length="19.50" shape="208.64,200.89 206.95,200.65 202.20,197.80 199.35,193.05 198.40,186.40"/>
    </edge>
    <edge id=":center_27" function="internal">
        <lane id=":center_27_0" index="0" speed="3.65" length="3.23" shape="212.40,200.80 212.00,200.00 212.40,199.20 213.60,198.40"/>
    </edge>
    <edge id=":center_12" function="internal">
        <lane id=":center_12_0" index="0" speed="6.51" length="9.03" shape="208.00,186.40 208.35,188.85 209.40,190.60 211.15,191.65 213.60,192.00"/>
    </edge>
    <edge id=":center_13" function="internal">
        <lane id=":center_13_0" index="0" speed="13.90" length="27.20" shape="208.00,186.40 208.00,213.60"/>
        <lane id=":center_13_1" index="1" speed="13.90" length="27.20" shape="204.80,186.40 204.80,213.60"/>
        <lane id=":center_13_2" index="2" speed="13.90" length="27.20" shape="201.60,186.40 201.60,213.60"/>
    </edge>
    <edge id=":center_16" function="internal">
        <lane id=":center_16_0" index="0" speed="10.36" length="5.01" shape="201.60,186.40 200.89,191.36"/>
    </edge>
    <edge id=":center_17" function="internal">
        <lane id=":center_17_0" index="0" speed="3.65" length="1.44" shape="201.60,186.40 200.80,187.60"/>
    </edge>
    <edge id=":center_28" function="internal">
        <lane id=":center_28_0" index="0" speed="10.36" length="19.50" shape="200.89,191.36 200.65,193.05 197.80,197.80 193.05,200.65 186.40,201.60"/>
    </edge>
    <edge id=":center_29" function="internal">
        <lane id=":center_29_0" index="0" speed="3.65" length="3.23" shape="200.80,187.60 200.00,188.00 199.20,187.60 198.40,186.40"/>
    </edge>
    <edge id=":center_18" function="internal">
        <lane id=":center_18_0" index="0" speed="6.51" length="9.03" shape="186.40,192.00 188.85,191.65 190.60,190.60 191.65,188.85 192.00,186.40"/>
    </edge>
    <edge id=":center_19" function="internal">
        <lane id=":center_19_0" index="0" speed="13.90" length="27.20" shape="186.40,192.00 213.60,192.00"/>
        <lane id=":center_19_1" index="1" speed="13.90" length="27.20" shape="186.40,195.20 213.60,195.20"/>
        <lane id=":center_19_2" index="2" speed="13.90" length="27.20" shape="186.40,198.40 213.60,198.40"/>
    </edge>
    <edge id=":center_22" function="internal">
        <lane id=":center_22_0" index="0" speed="10.36" length="5.01" shape="186.40,198.40 191.36,199.11"/>
    </edge>
    <edge id=":center_23" function="internal">
        <lane id=":center_23_0" index="0" speed="3.65" length="1.44" shape="186.40,198.40 187.60,199.20"/>
    </edge>
    <edge id=":center_30" function="internal">
        <lane id=":center_30_0" index="0" speed="10.36" length="19.50" shape="191.36,199.11 193.05,199.35 197.80,202.20 200.65,206.95 201.60,213.60"/>
    </edge>
    <edge id=":center_31" function="internal">
        <lane id=":center_31_0" index="0" speed="3.65" length="3.23" shape="187.60,199.20 188.00,200.00 187.60,200.80 186.40,201.60"/>
    </edge>

    <edge id="east_in" from="e_in" to="center" priority="-1">
        <lane id="east_in_0" index="0" speed="13.90" length="86.40" shape="300.00,208.00 213.60,208.00"/>
        <lane id="east_in_1" index="1" speed="13.90" length="86.40" shape="300.00,204.80 213.60,204.80"/>
        <lane id="east_in_2" index="2" speed="13.90" length="86.40" shape="300.00,201.60 213.60,201.60"/>
    </edge>
    <edge id="east_out" from="center" to="e_out" priority="-1">
        <lane id="east_out_0" index="0" speed="13.90" length="186.40" shape="213.60,192.00 400.00,192.00"/>
        <lane id="east_out_1" index="1" speed="13.90" length="186.40" shape="213.60,195.20 400.00,195.20"/>
        <lane id="east_out_2" index="2" speed="13.90" length="186.40" shape="213.60,198.40 400.00,198.40"/>
    </edge>
    <edge id="north_in" from="n_in" to="center" priority="-1">
        <lane id="north_in_0" index="0" speed="13.90" length="86.40" shape="192.00,300.00 192.00,213.60"/>
        <lane id="north_in_1" index="1" speed="13.90" length="86.40" shape="195.20,300.00 195.20,213.60"/>
        <lane id="north_in_2" index="2" speed="13.90" length="86.40" shape="198.40,300.00 198.40,213.60"/>
    </edge>
    <edge id="north_out" from="center" to="n_out" priority="-1">
        <lane id="north_out_0" index="0" speed="13.90" length="186.40" shape="208.00,213.60 208.00,400.00"/>
        <lane id="north_out_1" index="1" speed="13.90" length="186.40" shape="204.80,213.60 204.80,400.00"/>
        <lane id="north_out_2" index="2" speed="13.90" length="186.40" shape="201.60,213.60 201.60,400.00"/>
    </edge>
    <edge id="south_in" from="s_in" to="center" priority="-1">
        <lane id="south_in_0" index="0" speed="13.90" length="86.40" shape="208.00,100.00 208.00,186.40"/>
        <lane id="south_in_1" index="1" speed="13.90" length="86.40" shape="204.80,100.00 204.80,186.40"/>
        <lane id="south_in_2" index="2" speed="13.90" length="86.40" shape="201.60,100.00 201.60,186.40"/>
    </edge>
    <edge id="south_out" from="center" to="s_out" priority="-1">
        <lane id="south_out_0" index="0" speed="13.90" length="186.40" shape="192.00,186.40 192.00,0.00"/>
        <lane id="south_out_1" index="1" speed="13.90" length="186.40" shape="195.20,186.40 195.20,0.00"/>
        <lane id="south_out_2" index="2" speed="13.90" length="186.40" shape="198.40,186.40 198.40,0.00"/>
    </edge>
    <edge id="west_in" from="w_in" to="center" priority="-1">
        <lane id="west_in_0" index="0" speed="13.90" length="86.40" shape="100.00,192.00 186.40,192.00"/>
        <lane id="west_in_1" index="1" speed="13.90" length="86.40" shape="100.00,195.20 186.40,195.20"/>
        <lane id="west_in_2" index="2" speed="13.90" length="86.40" shape="100.00,198.40 186.40,198.40"/>
    </edge>
    <edge id="west_out" from="center" to="w_out" priority="-1">
        <lane id="west_out_0" index="0" speed="13.90" length="186.40" shape="186.40,208.00 0.00,208.00"/>
        <lane id="west_out_1" index="1" speed="13.90" length="186.40" shape="186.40,204.80 0.00,204.80"/>
        <lane id="west_out_2" index="2" speed="13.90" length="186.40" shape="186.40,201.60 0.00,201.60"/>
    </edge>

    <tlLogic id="center" type="static" programID="0" offset="0">
        <phase duration="42" state="GGGGggrrrrrrGGGGggrrrrrr"/>
        <phase duration="3"  state="yyyyyyrrrrrryyyyyyrrrrrr"/>
        <phase duration="42" state="rrrrrrGGGGggrrrrrrGGGGgg"/>
        <phase duration="3"  state="rrrrrryyyyyyrrrrrryyyyyy"/>
    </tlLogic>

    <junction id="center" type="traffic_light" x="200.00" y="200.00" incLanes="north_in_0 north_in_1 north_in_2 east_in_0 east_in_1 east_in_2 south_in_0 south_in_1 south_in_2 west_in_0 west_in_1 west_in_2" intLanes=":center_0_0 :center_1_0 :center_1_1 :center_1_2 :center_24_0 :center_25_0 :center_6_0 :center_7_0 :center_7_1 :center_7_2 :center_26_0 :center_27_0 :center_12_0 :center_13_0 :center_13_1 :center_13_2 :center_28_0 :center_29_0 :center_18_0 :center_19_0 :center_19_1 :center_19_2 :center_30_0 :center_31_0" shape="190.40,213.60 209.60,213.60 210.04,211.38 210.60,210.60 211.38,210.04 212.38,209.71 213.60,209.60 213.60,190.40 211.38,189.96 210.60,189.40 210.04,188.62 209.71,187.62 209.60,186.40 190.40,186.40 189.96,188.62 189.40,189.40 188.62,189.96 187.62,190.29 186.40,190.40 186.40,209.60 188.62,210.04 189.40,210.60 189.96,211.38 190.29,212.38">
        <request index="0"  response="000000000000000000000000" foes="000000000000001110000000" cont="0"/>
        <request index="1"  response="010000000000010000000000" foes="011111110000011110000000" cont="0"/>
        <request index="2"  response="010000000000010000000000" foes="011111110000011110000000" cont="0"/>
        <request index="3"  response="010000000000010000000000" foes="011111110000011110000000" cont="0"/>
        <request index="4"  response="010000001110010000000000" foes="011110001110111110000000" cont="1"/>
        <request index="5"  response="010000001110000000000000" foes="010000001110000000000000" cont="1"/>
        <request index="6"  response="000000001110000000000000" foes="000000001110000000000000" cont="0"/>
        <request index="7"  response="000000011110000000011111" foes="110000011110000000011111" cont="0"/>
        <request index="8"  response="000000011110000000011111" foes="110000011110000000011111" cont="0"/>
        <request index="9"  response="000000011110000000011111" foes="110000011110000000011111" cont="0"/>
        <request index="10" response="001110011110000000011110" foes="001110111110000000011110" cont="1"/>
        <request index="11" response="001110000000000000010000" foes="001110000000000000010000" cont="1"/>
        <request index="12" response="000000000000000000000000" foes="001110000000000000000000" cont="0"/>
        <request index="13" response="010000000000010000000000" foes="011110000000011111110000" cont="0"/>
        <request index="14" response="010000000000010000000000" foes="011110000000011111110000" cont="0"/>
        <request index="15" response="010000000000010000000000" foes="011110000000011111110000" cont="0"/>
        <request index="16" response="010000000000010000001110" foes="111110000000011110001110" cont="1"/>
        <request index="17" response="000000000000010000001110" foes="000000000000010000001110" cont="1"/>
        <request index="18" response="000000000000000000001110" foes="000000000000000000001110" cont="0"/>
        <request index="19" response="000000011111000000011110" foes="000000011111110000011110" cont="0"/>
        <request index="20" response="000000011111000000011110" foes="000000011111110000011110" cont="0"/>
        <request index="21" response="000000011111000000011110" foes="000000011111110000011110" cont="0"/>
        <request index="22" response="000000011110001110011110" foes="000000011110001110111110" cont="1"/>
        <request index="23" response="000000010000001110000000" foes="000000010000001110000000" cont="1"/>
    </junction>
    <junction id="e_in" type="dead_end" x="300.00" y="200.00" incLanes="" intLanes="" shape="300.00,200.00 300.00,209.60"/>
    <junction id="e_out" type="dead_end" x="400.00" y="200.00" incLanes="east_out_0 east_out_1 east_out_2" intLanes="" shape="400.00,190.40 400.00,200.00"/>
    <junction id="n_in" type="dead_end" x="200.00" y="300.00" incLanes="" intLanes="" shape="200.00,300.00 190.40,300.00"/>
    <junction id="n_out" type="dead_end" x="200.00" y="400.00" incLanes="north_out_0 north_out_1 north_out_2" intLanes="" shape="209.60,400.00 200.00,400.00"/>
    <junction id="s_in" type="dead_end" x="200.00" y="100.00" incLanes="" intLanes="" shape="200.00,100.00 209.60,100.00"/>
    <junction id="s_out" type="dead_end" x="200.00" y="0.00" incLanes="south_out_0 south_out_1 south_out_2" intLanes="" shape="190.40,0.00 200.00,0.00"/>
    <junction id="w_in" type="dead_end" x="100.00" y="200.00" incLanes="" intLanes="" shape="100.00,200.00 100.00,190.40"/>
    <junction id="w_out" type="dead_end" x="0.00" y="200.00" incLanes="west_out_0 west_out_1 west_out_2" intLanes="" shape="0.00,209.60 0.00,200.00"/>

    <junction id=":center_24_0" type="internal" x="199.11" y="208.64" incLanes=":center_4_0 south_in_0 south_in_1 south_in_2" intLanes=":center_7_0 :center_7_1 :center_7_2 :center_10_0 :center_11_0 :center_12_0 :center_13_0 :center_13_1 :center_13_2 :center_19_0 :center_19_1 :center_19_2 :center_22_0"/>
    <junction id=":center_25_0" type="internal" x="199.20" y="212.40" incLanes=":center_5_0 east_in_0 south_in_0 south_in_1 south_in_2 west_in_2" intLanes=":center_6_0 :center_13_0 :center_13_1 :center_13_2 :center_22_0"/>
    <junction id=":center_26_0" type="internal" x="208.64" y="200.89" incLanes=":center_10_0 west_in_0 west_in_1 west_in_2" intLanes=":center_1_0 :center_1_1 :center_1_2 :center_4_0 :center_13_0 :center_13_1 :center_13_2 :center_16_0 :center_17_0 :center_18_0 :center_19_0 :center_19_1 :center_19_2"/>
    <junction id=":center_27_0" type="internal" x="212.40" y="200.80" incLanes=":center_11_0 north_in_2 south_in_0 west_in_0 west_in_1 west_in_2" intLanes=":center_4_0 :center_12_0 :center_19_0 :center_19_1 :center_19_2"/>
    <junction id=":center_28_0" type="internal" x="200.89" y="191.36" incLanes=":center_16_0 north_in_0 north_in_1 north_in_2" intLanes=":center_0_0 :center_1_0 :center_1_1 :center_1_2 :center_7_0 :center_7_1 :center_7_2 :center_10_0 :center_19_0 :center_19_1 :center_19_2 :center_22_0 :center_23_0"/>
    <junction id=":center_29_0" type="internal" x="200.80" y="187.60" incLanes=":center_17_0 east_in_2 north_in_0 north_in_1 north_in_2 west_in_0" intLanes=":center_1_0 :center_1_1 :center_1_2 :center_10_0 :center_18_0"/>
    <junction id=":center_30_0" type="internal" x="191.36" y="199.11" incLanes=":center_22_0 east_in_0 east_in_1 east_in_2" intLanes=":center_1_0 :center_1_1 :center_1_2 :center_4_0 :center_5_0 :center_6_0 :center_7_0 :center_7_1 :center_7_2 :center_13_0 :center_13_1 :center_13_2 :center_16_0"/>
    <junction id=":center_31_0" type="internal" x="187.60" y="199.20" incLanes=":center_23_0 east_in_0 east_in_1 east_in_2 north_in_0 south_in_2" intLanes=":center_0_0 :center_7_0 :center_7_1 :center_7_2 :center_16_0"/>

    <connection from="east_in" to="north_out" fromLane="0" toLane="0" via=":center_6_0" tl="center" linkIndex="6" dir="r" state="o"/>
    <connection from="east_in" to="west_out" fromLane="0" toLane="0" via=":center_7_0" tl="center" linkIndex="7" dir="s" state="o"/>
    <connection from="east_in" to="west_out" fromLane="1" toLane="1" via=":center_7_1" tl="center" linkIndex="8" dir="s" state="o"/>
    <connection from="east_in" to="west_out" fromLane="2" toLane="2" via=":center_7_2" tl="center" linkIndex="9" dir="s" state="o"/>
    <connection from="east_in" to="south_out" fromLane="2" toLane="2" via=":center_10_0" tl="center" linkIndex="10" dir="l" state="o"/>
    <connection from="east_in" to="east_out" fromLane="2" toLane="2" via=":center_11_0" tl="center" linkIndex="11" dir="t" state="o"/>
    <connection from="north_in" to="west_out" fromLane="0" toLane="0" via=":center_0_0" tl="center" linkIndex="0" dir="r" state="O"/>
    <connection from="north_in" to="south_out" fromLane="0" toLane="0" via=":center_1_0" tl="center" linkIndex="1" dir="s" state="O"/>
    <connection from="north_in" to="south_out" fromLane="1" toLane="1" via=":center_1_1" tl="center" linkIndex="2" dir="s" state="O"/>
    <connection from="north_in" to="south_out" fromLane="2" toLane="2" via=":center_1_2" tl="center" linkIndex="3" dir="s" state="O"/>
    <connection from="north_in" to="east_out" fromLane="2" toLane="2" via=":center_4_0" tl="center" linkIndex="4" dir="l" state="o"/>
    <connection from="north_in" to="north_out" fromLane="2" toLane="2" via=":center_5_0" tl="center" linkIndex="5" dir="t" state="o"/>
    <connection from="south_in" to="east_out" fromLane="0" toLane="0" via=":center_12_0" tl="center" linkIndex="12" dir="r" state="O"/>
    <connection from="south_in" to="north_out" fromLane="0" toLane="0" via=":center_13_0" tl="center" linkIndex="13" dir="s" state="O"/>
    <connection from="south_in" to="north_out" fromLane="1" toLane="1" via=":center_13_1" tl="center" linkIndex="14" dir="s" state="O"/>
    <connection from="south_in" to="north_out" fromLane="2" toLane="2" via=":center_13_2" tl="center" linkIndex="15" dir="s" state="O"/>
    <connection from="south_in" to="west_out" fromLane="2" toLane="2" via=":center_16_0" tl="center" linkIndex="16" dir="l" state="o"/>
    <connection from="south_in" to="south_out" fromLane="2" toLane="2" via=":center_17_0" tl="center" linkIndex="17" dir="t" state="o"/>
    <connection from="west_in" to="south_out" fromLane="0" toLane="0" via=":center_18_0" tl="center" linkIndex="18" dir="r" state="o"/>
    <connection from="west_in" to="east_out" fromLane="0" toLane="0" via=":center_19_0" tl="center" linkIndex="19" dir="s" state="o"/>
    <connection from="west_in" to="east_out" fromLane="1" toLane="1" via=":center_19_1" tl="center" linkIndex="20" dir="s" state="o"/>
    <connection from="west_in" to="east_out" fromLane="2" toLane="2" via=":center_19_2" tl="center" linkIndex="21" dir="s" state="o"/>
    <connection from="west_in" to="north_out" fromLane="2" toLane="2" via=":center_22_0" tl="center" linkIndex="22" dir="l" state="o"/>
    <connection from="west_in" to="west_out" fromLane="2" toLane="2" via=":center_23_0" tl="center" linkIndex="23" dir="t" state="o"/>

    <connection from=":center_0" to="west_out" fromLane="0" toLane="0" dir="r" state="M"/>
    <connection from=":center_1" to="south_out" fromLane="0" toLane="0" dir="s" state="M"/>
    <connection from=":center_1" to="south_out" fromLane="1" toLane="1" dir="s" state="M"/>
    <connection from=":center_1" to="south_out" fromLane="2" toLane="2" dir="s" state="M"/>
    <connection from=":center_4" to="east_out" fromLane="0" toLane="2" via=":center_24_0" dir="l" state="m"/>
    <connection from=":center_24" to="east_out" fromLane="0" toLane="2" dir="l" state="M"/>
    <connection from=":center_5" to="north_out" fromLane="0" toLane="2" via=":center_25_0" dir="t" state="m"/>
    <connection from=":center_25" to="north_out" fromLane="0" toLane="2" dir="t" state="M"/>
    <connection from=":center_6" to="north_out" fromLane="0" toLane="0" dir="r" state="M"/>
    <connection from=":center_7" to="west_out" fromLane="0" toLane="0" dir="s" state="M"/>
    <connection from=":center_7" to="west_out" fromLane="1" toLane="1" dir="s" state="M"/>
    <connection from=":center_7" to="west_out" fromLane="2" toLane="2" dir="s" state="M"/>
    <connection from=":center_10" to="south_out" fromLane="0" toLane="2" via=":center_26_0" dir="l" state="m"/>
    <connection from=":center_26" to="south_out" fromLane="0" toLane="2" dir="l" state="M"/>
    <connection from=":center_11" to="east_out" fromLane="0" toLane="2" via=":center_27_0" dir="t" state="m"/>
    <connection from=":center_27" to="east_out" fromLane="0" toLane="2" dir="t" state="M"/>
    <connection from=":center_12" to="east_out" fromLane="0" toLane="0" dir="r" state="M"/>
    <connection from=":center_13" to="north_out" fromLane="0" toLane="0" dir="s" state="M"/>
    <connection from=":center_13" to="north_out" fromLane="1" toLane="1" dir="s" state="M"/>
    <connection from=":center_13" to="north_out" fromLane="2" toLane="2" dir="s" state="M"/>
    <connection from=":center_16" to="west_out" fromLane="0" toLane="2" via=":center_28_0" dir="l" state="m"/>
    <connection from=":center_28" to="west_out" fromLane="0" toLane="2" dir="l" state="M"/>
    <connection from=":center_17" to="south_out" fromLane="0" toLane="2" via=":center_29_0" dir="t" state="m"/>
    <connection from=":center_29" to="south_out" fromLane="0" toLane="2" dir="t" state="M"/>
    <connection from=":center_18" to="south_out" fromLane="0" toLane="0" dir="r" state="M"/>
    <connection from=":center_19" to="east_out" fromLane="0" toLane="0" dir="s" state="M"/>
    <connection from=":center_19" to="east_out" fromLane="1" toLane="1" dir="s" state="M"/>
    <connection from=":center_19" to="east_out" fromLane="2" toLane="2" dir="s" state="M"/>
    <connection from=":center_22" to="north_out" fromLane="0" toLane="2" via=":center_30_0" dir="l" state="m"/>
    <connection from=":center_30" to="north_out" fromLane="0" toLane="2" dir="l" state="M"/>
    <connection from=":center_23" to="west_out" fromLane="0" toLane="2" via=":center_31_0" dir="t" state="m"/>
    <connection from=":center_31" to="west_out" fromLane="0" toLane="2" dir="t" state="M"/>

</net>
